@<TRIPOS>MOLECULE
887
 6 5 0 0 0
SMALL
GASTEIGER

@<TRIPOS>ATOM
      1 O           0.9922    0.0739    0.0724 O.3     1  UNL1       -0.3982
      2 C           0.5255    0.0337   -1.2636 C.3     1  UNL1        0.0330
      3 H           0.8853    0.9134   -1.8029 H       1  UNL1        0.0521
      4 H           0.8853   -0.8769   -1.7490 H       1  UNL1        0.0521
      5 H          -0.5670    0.0338   -1.2586 H       1  UNL1        0.0521
      6 H           1.9639    0.0728    0.0358 H       1  UNL1        0.2090
@<TRIPOS>BOND
     1     1     2    1
     2     1     6    1
     3     2     3    1
     4     2     4    1
     5     2     5    1
